[General]
network = LoraMeshNetwork
sim-time-limit = 600s

# =============================================================================
# GlobalArp — ARP istek/cevap paketleri göndermek yerine IP→MAC eşlemesini
# doğrudan InterfaceTable'dan alır.
# Gerekçe: LoRaGW.ned içindeki EthernetEncapsulation modülü
#   IInterfaceRegistrationListener'ı uygulamadığından, gerçek ARP mesajları
#   ipv4.lp dispatcher'ının interfaceIdToGateIndex tablosuna kaydedilemiyor.
#   Bu da "Unknown interface: interfaceId=100" hatasına yol açıyor.
#   GlobalArp bu sorunu tamamen ortadan kaldırır.
# Not: V2'de gerçek Meshtastic/LoRa ortamı eklenince bu satır kaldırılabilir.
# =============================================================================
**.arp.typename = "GlobalArp"

# =============================================================================
# EndNode (sensorNode1) — LoRaWAN saha sensörü
# Donanım: STM32L476RG + E77-900M (PDF Bölüm 3.2)
# Payload: 11B little-endian (sıcaklık/nem/basınç/batarya/sıra no)
# =============================================================================
**.sensorNode1.numApps = 1
**.sensorNode1.app[0].typename = "SensorLoRaApp"
**.sensorNode1.app[0].numberOfPacketsToSend = 0
**.sensorNode1.app[0].startTime = 10s
**.sensorNode1.app[0].sendInterval = exponential(600s)  # ETSI EN 300 220: ToA=1.97s → DC=0.33% < 1% ✓
**.sensorNode1.app[0].dataSize = 11B

# EU868 PHY — ETSI EN 300 220 uyumlu (PDF Bölüm 5.5.1)
# SF12: sensitivity=-137dBm, max kapsama alanı, duty cycle: 1%/saat max
**.sensorNode1.app[0].initialLoRaTP = 14dBm
**.sensorNode1.app[0].initialLoRaCF = 868MHz
**.sensorNode1.app[0].initialLoRaSF = 12
**.sensorNode1.app[0].initialLoRaBW = 125kHz
**.sensorNode1.app[0].initialLoRaCR = 4
**.sensorNode1.app[0].initialUseHeader = true

# =============================================================================
# LoRaWAN Fiziksel Ortam (radioMedium) — EndNode ↔ HybridGateway arasında
# =============================================================================
**.radioMedium.mediumLimitCache.maxTransmissionDuration = 5s   # SF12 ToA ~2.8s
**.radioMedium.pathLossType = "LoRaLogNormalShadowing"
**.sigma = 3.57
**.minInterferenceTime = 0s
**.radioMedium.mediumLimitCacheType = "LoRaMediumCache"
**.radioMedium.rangeFilter = "communicationRange"
**.radioMedium.neighborCacheType = "LoRaNeighborCache"
**.radioMedium.neighborCache.range = 1000m
**.radioMedium.neighborCache.refillPeriod = 3000s
LoraMeshNetwork.**.radio.separateTransmissionParts = false
LoraMeshNetwork.**.radio.separateReceptionParts = false

# =============================================================================
# HybridGateway 1 (hybridGW1) — LoRaWAN birincil gateway, internet YOK
# Donanım: RPi CM4 + RAK5146 (SX1303) + Heltec HT-CT62 (SX1262) — PDF Bölüm 5.1
#
# V1: PacketForwarder → networkServer
#     IP yolu: hybridGW1 → meshNode1 (IP router) → hybridGW2 (IP forwarder) → networkServer
#     (Ipv4NetworkConfigurator bu zinciri otomatik kurar)
# V2: Failover Agent state machine, Rlink izleme, ONLINE/FAILOVER mod geçişi
# =============================================================================
**.hybridGW1.packetForwarder.localPort = 2000
**.hybridGW1.packetForwarder.destPort = 1000
**.hybridGW1.packetForwarder.destAddresses = "networkServer"
**.hybridGW1.LoRaGWNic.radio.iAmGateway = true
# SX1303+SX1250 alıcı hassasiyeti override — FLoRa default -100dBm → gerçek -141dBm
**.hybridGW1.LoRaGWNic.radio.receiver.sensitivity = -141dBm
**.hybridGW2.LoRaGWNic.radio.receiver.sensitivity = -141dBm

# =============================================================================
# MeshNode (meshNode1) — Meshtastic relay düğümü
# V1: INET Router — IP forwarding otomatik (Router varsayılanı)
# V2: SX1262 LoRa radyo + MeshtasticMedium ile gerçek mesh relay
# =============================================================================
# (V1: MeshNode extends Router — forwarding=true otomatik, özel parametre yok)

# GAP-5 (V2): numWlanInterfaces=1 ile WLAN enerji tüketimi ölçülür.
# INET Radio modülü varsayılan olarak "radioMedium" adlı modülü arar,
# bu FLoRa LoRaMedium'dur. WLAN radyolarını ayrı Ieee80211ScalarRadioMedium'a
# (wlanMedium) yönlendiriyoruz:
**.meshNode1.wlan[*].radio.radioMediumModule = "wlanMedium"

# =============================================================================
# HybridGateway 2 (hybridGW2) — internet çıkışlı hibrit gateway
# Donanım: RPi CM4 + RAK5146 (SX1303) + Heltec HT-CT62 (SX1262) — PDF Bölüm 5.1
#
# V1: IP forwarder olarak çalışır (meshNode1'den geleni networkServer'a iletir)
#     hybridGW2 LoRaGW tabanlı olduğu için forwarding açıkça etkinleştirilmeli.
#     ipv4.forwarding = NetworkLayer seviyesi → routingTable.forwarding=true da olur.
#     (ipv4.ip.forwarding yerine ipv4.forwarding: Ipv4NetworkLayer *.forwarding propagation)
# V2: Meshtastic alıcı modülü + LNS transmitter + QoS queue eklenir
# =============================================================================
**.hybridGW2.ipv4.forwarding = true
# hybridGW2'de PacketForwarder var (LoRaGW tabanı), ancak V1'de LoRa RX yapmaz.
# Parametreler boş bırakılırsa interactive prompt hatası verir → dummy değerler:
**.hybridGW2.packetForwarder.localPort = 2001   # GW1'den farklı port
**.hybridGW2.packetForwarder.destPort = 1000
**.hybridGW2.packetForwarder.destAddresses = "networkServer"
**.hybridGW2.LoRaGWNic.radio.iAmGateway = false  # V1: sadece IP relay, LoRa RX değil
# NOTE: V1 topolojisinde hybridGW2 artık gwRouter2 (INET Router) olarak temsil
# edilmektedir. Bu satırlar yorum olarak korundu — V2'de HybridGateway geri gelince
# aktive edilecek.

# =============================================================================
# NetworkServer — Bulut / Yerel LNS
# Yazılım: ChirpStack v4, TTN, Azure IoT Hub (PDF Bölüm 3.3-3.4)
# =============================================================================
**.networkServer.numApps = 1
**.networkServer.app[0].typename = "NetworkServerApp"
**.networkServer.app[0].localPort = 1000
**.networkServer.app[0].destPort = 2000
**.networkServer.app[0].destAddresses = "hybridGW1"   # downlink ACK hedefi

# =============================================================================
# Konum Parametreleri (StationaryMobility)
# initFromDisplayString=false: ini değerleri kullanılır
# =============================================================================
**.mobility.initFromDisplayString = false

# EndNode: hybridGW1'e ~56m (SF12 ile test edildi, DER=1.0)
**.sensorNode1.mobility.initialX = 310m
**.sensorNode1.mobility.initialY = 240m

# hybridGW1 — LoRaWAN birincil gateway (internet yok)
**.hybridGW1.mobility.initialX = 350m
**.hybridGW1.mobility.initialY = 220m

# meshNode1 — Meshtastic relay (GW1 ile GW2 arasında)
**.meshNode1.mobility.initialX = 500m
**.meshNode1.mobility.initialY = 220m

# hybridGW2 — internet çıkışlı gateway
**.gwRouter2.mobility.initialX = 650m
**.gwRouter2.mobility.initialY = 220m

# NetworkServer — bulut konumu (RF mesafesi önemsiz)
**.networkServer.mobility.initialX = 870m
**.networkServer.mobility.initialY = 220m

**.constraintAreaMinX = 0m
**.constraintAreaMinY = 0m
**.constraintAreaMaxX = 1000m
**.constraintAreaMaxY = 600m
**.constraintAreaMinZ = 0m
**.constraintAreaMaxZ = 0m

# =============================================================================
# [Config MultiNodeTest] — Çok Düğümlü Algoritma Doğrulaması
# =============================================================================
# Hedef: C_i maliyet fonksiyonu, darboğaz koruma ve CAD güç döngüsünü
#        kapsamlı çok-düğümlü senaryoda test et.
#
# Topoloji: 4 sensor → hybridGW1 → meshNode1 → meshNode2 → gwRouter1 → networkServer
#                                                         → meshNode3 → gwRouter2 →^
# Mock: 3 sahte komşu enjekte edilir; backhaul rastgele ~80-150s arası kesilir.
# =============================================================================

# =============================================================================
# Config   : Faz4_GW2_Mesh1_MIN
# GW=2  MeshPerGap=1  Mod=MIN
# Hop=1000m  Gap=2000m  ToplamUzunluk=2000m
# MeshNode=1  Sensör=20 (10/GW)
# Run=36  (sensorSF 7..12 × meshSF 7..12), sigma=5.0
# =============================================================================

[Config Faz4_GW2_Mesh1_MIN]
network        = LoraMesh_GW2_Mesh1_MIN
sim-time-limit = 1200s
description    = "Faz4_GW=2 Mesh=1 MIN: 20 sensör, 1 MeshNode, sigma=5.0, gamma=2.8, obstacle=3.5dB, noiseFloor=-105dBm, sendInterval=180s (BTK/KET YasalSinir)"

output-scalar-file = results_faz4/Faz4_GW2_Mesh1_MIN-${runnumber}.sca

**.scalar-recording = true
**.vector-recording = false

# ── Kartezyen çarpım: sensorSF × meshSF = 36 run ──────────────────────────
**.sensorGW*[*].app[0].initialLoRaSF       = ${sensorSF    = 7, 8, 9, 10, 11, 12}
**.meshNode[*].meshRouting.loraSF           = ${meshSF      = 7, 8, 9, 10, 11, 12}
**.radioMedium.pathLoss.sigma               = 5.0
**.sigma                                    = 5.0

# ── sensorSF paralel (!): sendInterval + gwSensitivity ────────────────────
**.sensorGW*[*].app[0].dataSize      = 20B
**.sensorGW*[*].app[0].sendInterval  = 180s
# NOTE: sendInterval sabit 180s — SF bağımsız trafik yoğunluğu testi
**.LoRaGWNic.radio.receiver.sensitivity = ${gwSensitivity = -124dBm, -127dBm, -130dBm, -133dBm, -135dBm, -141dBm ! sensorSF}

# ── meshSF paralel (!): beaconInterval + cadDuration ──────────────────────
**.meshNode[*].meshRouting.beaconInterval = ${meshInterval = 5s, 9s, 17s, 29s, 63s, 265s ! meshSF}
**.meshNode[*].meshRouting.cadDuration    = ${cadDur       = 1ms, 2ms, 4ms, 8ms, 16ms, 33ms ! meshSF}

# ── LoRaWAN Fiziksel Ortam ─────────────────────────────────────────────────
**.radioMedium.pathLoss.d0          = 1m
**.radioMedium.pathLoss.gamma       = 2.8
**.radioMedium.pathLoss.pl_d0_db    = 35.04
**.radioMedium.pathLoss.max_sensitivity_dBm = -115.0
**.radioMedium.mediumLimitCache.maxTransmissionDuration = 5s
**.radioMedium.mediumLimitCache.maxTransmissionPower = 0.025118W
**.radio.receiver.noiseFloor = -105.0dBm
**.radio.receiver.energyDetection = -95.0dBm
**.radioMedium.pathLossType         = "LoRaLogNormalShadowing"
**.minInterferenceTime              = 0s
**.radioMedium.mediumLimitCacheType = "LoRaMediumCache"
**.radioMedium.rangeFilter          = "communicationRange"
**.radioMedium.neighborCacheType    = "LoRaNeighborCache"
**.radioMedium.neighborCache.range  = 5000m
**.radioMedium.neighborCache.refillPeriod = 1200s
LoraMesh_GW2_Mesh1_MIN.**.radio.separateTransmissionParts = false
LoraMesh_GW2_Mesh1_MIN.**.radio.separateReceptionParts    = false

# ── Global ARP & IP yönlendirme ────────────────────────────────────────────
**.arp.typename = "GlobalArp"
**.gwRouter0.ipv4.forwarding     = true
**.hybridGW0.ipv4.forwarding     = true
**.gwRouter1.ipv4.forwarding     = true
**.hybridGW1.ipv4.forwarding     = true

# ── Global GW parametreleri (backhaulCutTime=-1s → daima çevrimiçi) ────────
**.LoRaGWNic.radio.iAmGateway              = true
**.packetForwarder.localPort               = 2000
**.packetForwarder.destPort                = 1000
**.routingAgent.backhaulCutTime            = -1s
**.routingAgent.maxQueueSize               = 200
**.routingAgent.neighborTimeout            = 120s
**.routingAgent.bandMTxPower_dBm           = 14.0
**.routingAgent.bandMDutyCycle             = 0.01
**.routingAgent.rx2TxPower_dBm             = 14.0
**.routingAgent.rx2DutyCycle               = 0.10
**.routingAgent.rx2Frequency               = 869.525MHz
**.routingAgent.antennaGain_dBi            = 0.0
**.routingAgent.numDemodulators            = 16
**.routingAgent.txQuotaWindow              = 3600s
**.routingAgent.beaconRssi                 = -72.0
**.routingAgent.sensorPacketRate           = 5.0

# ── Per-GW: destAddresses, meshAddress, meshNeighborList ───────────────────
**.hybridGW0.packetForwarder.destAddresses = "networkServer0"
**.hybridGW0.routingAgent.meshAddress       = "10.1.0.1"
**.hybridGW0.routingAgent.meshNeighborList  = "hybridGW0 hybridGW1 meshNode"
**.hybridGW1.packetForwarder.destAddresses = "networkServer1"
**.hybridGW1.routingAgent.meshAddress       = "10.1.0.2"
**.hybridGW1.routingAgent.meshNeighborList  = "hybridGW0 hybridGW1 meshNode"

# ── MeshNode parametreleri ─────────────────────────────────────────────────
**.meshNode[*].wlan[*].radio.radioMediumModule = "wlanMedium"
**.meshNode[*].meshRouting.loraBandwidth       = 250000Hz
**.meshNode[*].meshRouting.neighborTimeout     = 120s
**.meshNode[*].meshRouting.meshNeighborList    = "hybridGW0 hybridGW1 meshNode"
**.meshNode[0].meshRouting.meshAddress = "10.20.0.1"

# ── Sensör Uygulama Katmanı (wildcard: tüm sensorGW* dizileri) ─────────────
**.sensorGW*[*].numApps                      = 1
**.sensorGW*[*].app[0].typename              = "SensorLoRaApp"
**.sensorGW*[*].app[0].numberOfPacketsToSend = 0
**.sensorGW*[*].app[0].initialLoRaTP         = 14dBm
**.sensorGW*[*].app[0].initialLoRaCF         = 868.1MHz
**.sensorGW*[*].app[0].initialLoRaBW         = 125kHz
**.sensorGW*[*].app[0].initialLoRaCR         = 4
**.sensorGW*[*].app[0].initialUseHeader      = true

# ── Staggered start: SF12 ToA=1.97s → 3.5s aralık (tüm SF için güvenli) ──
**.sensorGW0[0].app[0].startTime = 2.0s
**.sensorGW0[1].app[0].startTime = 5.5s
**.sensorGW0[2].app[0].startTime = 9.0s
**.sensorGW0[3].app[0].startTime = 12.5s
**.sensorGW0[4].app[0].startTime = 16.0s
**.sensorGW0[5].app[0].startTime = 19.5s
**.sensorGW0[6].app[0].startTime = 23.0s
**.sensorGW0[7].app[0].startTime = 26.5s
**.sensorGW0[8].app[0].startTime = 30.0s
**.sensorGW0[9].app[0].startTime = 33.5s
**.sensorGW1[0].app[0].startTime = 37.0s
**.sensorGW1[1].app[0].startTime = 40.5s
**.sensorGW1[2].app[0].startTime = 44.0s
**.sensorGW1[3].app[0].startTime = 47.5s
**.sensorGW1[4].app[0].startTime = 51.0s
**.sensorGW1[5].app[0].startTime = 54.5s
**.sensorGW1[6].app[0].startTime = 58.0s
**.sensorGW1[7].app[0].startTime = 61.5s
**.sensorGW1[8].app[0].startTime = 65.0s
**.sensorGW1[9].app[0].startTime = 68.5s

# ── Per-NS konfigürasyonu ─────────────────────────────────────────────────
**.networkServer0.numApps              = 1
**.networkServer0.app[0].typename      = "NetworkServerApp"
**.networkServer0.app[0].localPort     = 1000
**.networkServer0.app[0].destPort      = 2000
**.networkServer0.app[0].destAddresses = "hybridGW0"
**.networkServer1.numApps              = 1
**.networkServer1.app[0].typename      = "NetworkServerApp"
**.networkServer1.app[0].localPort     = 1000
**.networkServer1.app[0].destPort      = 2000
**.networkServer1.app[0].destAddresses = "hybridGW1"

# ── Mobility başlangıç konumları ──────────────────────────────────────────
**.mobility.initFromDisplayString = false

**.hybridGW0.mobility.initialX = 0m
**.hybridGW0.mobility.initialY = 0m
**.hybridGW0.mobility.initialZ = 10m
**.hybridGW1.mobility.initialX = 2000m
**.hybridGW1.mobility.initialY = 0m
**.hybridGW1.mobility.initialZ = 10m

**.meshNode[0].mobility.initialX = 1000m
**.meshNode[0].mobility.initialY = 0m
**.meshNode[0].mobility.initialZ = 5m

**.sensorGW0[0].mobility.initialX = 0m
**.sensorGW0[0].mobility.initialY = 500m
**.sensorGW0[0].mobility.initialZ = 1m
**.sensorGW0[1].mobility.initialX = 0m
**.sensorGW0[1].mobility.initialY = 1000m
**.sensorGW0[1].mobility.initialZ = 1m
**.sensorGW0[2].mobility.initialX = 0m
**.sensorGW0[2].mobility.initialY = 1500m
**.sensorGW0[2].mobility.initialZ = 1m
**.sensorGW0[3].mobility.initialX = 0m
**.sensorGW0[3].mobility.initialY = 2000m
**.sensorGW0[3].mobility.initialZ = 1m
**.sensorGW0[4].mobility.initialX = 0m
**.sensorGW0[4].mobility.initialY = 2500m
**.sensorGW0[4].mobility.initialZ = 1m
**.sensorGW0[5].mobility.initialX = 0m
**.sensorGW0[5].mobility.initialY = -500m
**.sensorGW0[5].mobility.initialZ = 1m
**.sensorGW0[6].mobility.initialX = 0m
**.sensorGW0[6].mobility.initialY = -1000m
**.sensorGW0[6].mobility.initialZ = 1m
**.sensorGW0[7].mobility.initialX = 0m
**.sensorGW0[7].mobility.initialY = -1500m
**.sensorGW0[7].mobility.initialZ = 1m
**.sensorGW0[8].mobility.initialX = 0m
**.sensorGW0[8].mobility.initialY = -2000m
**.sensorGW0[8].mobility.initialZ = 1m
**.sensorGW0[9].mobility.initialX = 0m
**.sensorGW0[9].mobility.initialY = -2500m
**.sensorGW0[9].mobility.initialZ = 1m
**.sensorGW1[0].mobility.initialX = 2000m
**.sensorGW1[0].mobility.initialY = 500m
**.sensorGW1[0].mobility.initialZ = 1m
**.sensorGW1[1].mobility.initialX = 2000m
**.sensorGW1[1].mobility.initialY = 1000m
**.sensorGW1[1].mobility.initialZ = 1m
**.sensorGW1[2].mobility.initialX = 2000m
**.sensorGW1[2].mobility.initialY = 1500m
**.sensorGW1[2].mobility.initialZ = 1m
**.sensorGW1[3].mobility.initialX = 2000m
**.sensorGW1[3].mobility.initialY = 2000m
**.sensorGW1[3].mobility.initialZ = 1m
**.sensorGW1[4].mobility.initialX = 2000m
**.sensorGW1[4].mobility.initialY = 2500m
**.sensorGW1[4].mobility.initialZ = 1m
**.sensorGW1[5].mobility.initialX = 2000m
**.sensorGW1[5].mobility.initialY = -500m
**.sensorGW1[5].mobility.initialZ = 1m
**.sensorGW1[6].mobility.initialX = 2000m
**.sensorGW1[6].mobility.initialY = -1000m
**.sensorGW1[6].mobility.initialZ = 1m
**.sensorGW1[7].mobility.initialX = 2000m
**.sensorGW1[7].mobility.initialY = -1500m
**.sensorGW1[7].mobility.initialZ = 1m
**.sensorGW1[8].mobility.initialX = 2000m
**.sensorGW1[8].mobility.initialY = -2000m
**.sensorGW1[8].mobility.initialZ = 1m
**.sensorGW1[9].mobility.initialX = 2000m
**.sensorGW1[9].mobility.initialY = -2500m
**.sensorGW1[9].mobility.initialZ = 1m

**.gwRouter0.mobility.initialX      = 0m
**.gwRouter0.mobility.initialY      = -3000m
**.gwRouter0.mobility.initialZ      = 0m
**.networkServer0.mobility.initialX = 0m
**.networkServer0.mobility.initialY = -5000m
**.networkServer0.mobility.initialZ = 0m
**.gwRouter1.mobility.initialX      = 2000m
**.gwRouter1.mobility.initialY      = -3000m
**.gwRouter1.mobility.initialZ      = 0m
**.networkServer1.mobility.initialX = 2000m
**.networkServer1.mobility.initialY = -5000m
**.networkServer1.mobility.initialZ = 0m

**.constraintAreaMinX = -1000m
**.constraintAreaMinY = -6000m
**.constraintAreaMaxX = 4000m
**.constraintAreaMaxY = 3500m
**.constraintAreaMinZ = 0m
**.constraintAreaMaxZ = 20m

# =============================================================================
# Config   : Faz4_GW2_Mesh1_MAX
# GW=2  MeshPerGap=1  Mod=MAX
# Hop=6000m  Gap=12000m  ToplamUzunluk=12000m
# MeshNode=1  Sensör=20 (10/GW)
# Run=36  (sensorSF 7..12 × meshSF 7..12), sigma=5.0
# =============================================================================

[Config Faz4_GW2_Mesh1_MAX]
network        = LoraMesh_GW2_Mesh1_MAX
sim-time-limit = 1200s
description    = "Faz4_GW=2 Mesh=1 MAX: 20 sensör, 1 MeshNode, sigma=5.0, gamma=2.8, obstacle=3.5dB, noiseFloor=-105dBm, sendInterval=180s (BTK/KET YasalSinir)"

output-scalar-file = results_faz4/Faz4_GW2_Mesh1_MAX-${runnumber}.sca

**.scalar-recording = true
**.vector-recording = false

# ── Kartezyen çarpım: sensorSF × meshSF = 36 run ──────────────────────────
**.sensorGW*[*].app[0].initialLoRaSF       = ${sensorSF    = 7, 8, 9, 10, 11, 12}
**.meshNode[*].meshRouting.loraSF           = ${meshSF      = 7, 8, 9, 10, 11, 12}
**.radioMedium.pathLoss.sigma               = 5.0
**.sigma                                    = 5.0

# ── sensorSF paralel (!): sendInterval + gwSensitivity ────────────────────
**.sensorGW*[*].app[0].dataSize      = 20B
**.sensorGW*[*].app[0].sendInterval  = 180s
# NOTE: sendInterval sabit 180s — SF bağımsız trafik yoğunluğu testi
**.LoRaGWNic.radio.receiver.sensitivity = ${gwSensitivity = -124dBm, -127dBm, -130dBm, -133dBm, -135dBm, -141dBm ! sensorSF}

# ── meshSF paralel (!): beaconInterval + cadDuration ──────────────────────
**.meshNode[*].meshRouting.beaconInterval = ${meshInterval = 5s, 9s, 17s, 29s, 63s, 265s ! meshSF}
**.meshNode[*].meshRouting.cadDuration    = ${cadDur       = 1ms, 2ms, 4ms, 8ms, 16ms, 33ms ! meshSF}

# ── LoRaWAN Fiziksel Ortam ─────────────────────────────────────────────────
**.radioMedium.pathLoss.d0          = 1m
**.radioMedium.pathLoss.gamma       = 2.8
**.radioMedium.pathLoss.pl_d0_db    = 35.04
**.radioMedium.pathLoss.max_sensitivity_dBm = -115.0
**.radioMedium.mediumLimitCache.maxTransmissionDuration = 5s
**.radioMedium.mediumLimitCache.maxTransmissionPower = 0.025118W
**.radio.receiver.noiseFloor = -105.0dBm
**.radio.receiver.energyDetection = -95.0dBm
**.radioMedium.pathLossType         = "LoRaLogNormalShadowing"
**.minInterferenceTime              = 0s
**.radioMedium.mediumLimitCacheType = "LoRaMediumCache"
**.radioMedium.rangeFilter          = "communicationRange"
**.radioMedium.neighborCacheType    = "LoRaNeighborCache"
**.radioMedium.neighborCache.range  = 15000m
**.radioMedium.neighborCache.refillPeriod = 1200s
LoraMesh_GW2_Mesh1_MAX.**.radio.separateTransmissionParts = false
LoraMesh_GW2_Mesh1_MAX.**.radio.separateReceptionParts    = false

# ── Global ARP & IP yönlendirme ────────────────────────────────────────────
**.arp.typename = "GlobalArp"
**.gwRouter0.ipv4.forwarding     = true
**.hybridGW0.ipv4.forwarding     = true
**.gwRouter1.ipv4.forwarding     = true
**.hybridGW1.ipv4.forwarding     = true

# ── Global GW parametreleri (backhaulCutTime=-1s → daima çevrimiçi) ────────
**.LoRaGWNic.radio.iAmGateway              = true
**.packetForwarder.localPort               = 2000
**.packetForwarder.destPort                = 1000
**.routingAgent.backhaulCutTime            = -1s
**.routingAgent.maxQueueSize               = 200
**.routingAgent.neighborTimeout            = 120s
**.routingAgent.bandMTxPower_dBm           = 14.0
**.routingAgent.bandMDutyCycle             = 0.01
**.routingAgent.rx2TxPower_dBm             = 14.0
**.routingAgent.rx2DutyCycle               = 0.10
**.routingAgent.rx2Frequency               = 869.525MHz
**.routingAgent.antennaGain_dBi            = 0.0
**.routingAgent.numDemodulators            = 16
**.routingAgent.txQuotaWindow              = 3600s
**.routingAgent.beaconRssi                 = -72.0
**.routingAgent.sensorPacketRate           = 5.0

# ── Per-GW: destAddresses, meshAddress, meshNeighborList ───────────────────
**.hybridGW0.packetForwarder.destAddresses = "networkServer0"
**.hybridGW0.routingAgent.meshAddress       = "10.1.0.1"
**.hybridGW0.routingAgent.meshNeighborList  = "hybridGW0 hybridGW1 meshNode"
**.hybridGW1.packetForwarder.destAddresses = "networkServer1"
**.hybridGW1.routingAgent.meshAddress       = "10.1.0.2"
**.hybridGW1.routingAgent.meshNeighborList  = "hybridGW0 hybridGW1 meshNode"

# ── MeshNode parametreleri ─────────────────────────────────────────────────
**.meshNode[*].wlan[*].radio.radioMediumModule = "wlanMedium"
**.meshNode[*].meshRouting.loraBandwidth       = 250000Hz
**.meshNode[*].meshRouting.neighborTimeout     = 120s
**.meshNode[*].meshRouting.meshNeighborList    = "hybridGW0 hybridGW1 meshNode"
**.meshNode[0].meshRouting.meshAddress = "10.20.0.1"

# ── Sensör Uygulama Katmanı (wildcard: tüm sensorGW* dizileri) ─────────────
**.sensorGW*[*].numApps                      = 1
**.sensorGW*[*].app[0].typename              = "SensorLoRaApp"
**.sensorGW*[*].app[0].numberOfPacketsToSend = 0
**.sensorGW*[*].app[0].initialLoRaTP         = 14dBm
**.sensorGW*[*].app[0].initialLoRaCF         = 868.1MHz
**.sensorGW*[*].app[0].initialLoRaBW         = 125kHz
**.sensorGW*[*].app[0].initialLoRaCR         = 4
**.sensorGW*[*].app[0].initialUseHeader      = true

# ── Staggered start: SF12 ToA=1.97s → 3.5s aralık (tüm SF için güvenli) ──
**.sensorGW0[0].app[0].startTime = 2.0s
**.sensorGW0[1].app[0].startTime = 5.5s
**.sensorGW0[2].app[0].startTime = 9.0s
**.sensorGW0[3].app[0].startTime = 12.5s
**.sensorGW0[4].app[0].startTime = 16.0s
**.sensorGW0[5].app[0].startTime = 19.5s
**.sensorGW0[6].app[0].startTime = 23.0s
**.sensorGW0[7].app[0].startTime = 26.5s
**.sensorGW0[8].app[0].startTime = 30.0s
**.sensorGW0[9].app[0].startTime = 33.5s
**.sensorGW1[0].app[0].startTime = 37.0s
**.sensorGW1[1].app[0].startTime = 40.5s
**.sensorGW1[2].app[0].startTime = 44.0s
**.sensorGW1[3].app[0].startTime = 47.5s
**.sensorGW1[4].app[0].startTime = 51.0s
**.sensorGW1[5].app[0].startTime = 54.5s
**.sensorGW1[6].app[0].startTime = 58.0s
**.sensorGW1[7].app[0].startTime = 61.5s
**.sensorGW1[8].app[0].startTime = 65.0s
**.sensorGW1[9].app[0].startTime = 68.5s

# ── Per-NS konfigürasyonu ─────────────────────────────────────────────────
**.networkServer0.numApps              = 1
**.networkServer0.app[0].typename      = "NetworkServerApp"
**.networkServer0.app[0].localPort     = 1000
**.networkServer0.app[0].destPort      = 2000
**.networkServer0.app[0].destAddresses = "hybridGW0"
**.networkServer1.numApps              = 1
**.networkServer1.app[0].typename      = "NetworkServerApp"
**.networkServer1.app[0].localPort     = 1000
**.networkServer1.app[0].destPort      = 2000
**.networkServer1.app[0].destAddresses = "hybridGW1"

# ── Mobility başlangıç konumları ──────────────────────────────────────────
**.mobility.initFromDisplayString = false

**.hybridGW0.mobility.initialX = 0m
**.hybridGW0.mobility.initialY = 0m
**.hybridGW0.mobility.initialZ = 10m
**.hybridGW1.mobility.initialX = 12000m
**.hybridGW1.mobility.initialY = 0m
**.hybridGW1.mobility.initialZ = 10m

**.meshNode[0].mobility.initialX = 6000m
**.meshNode[0].mobility.initialY = 0m
**.meshNode[0].mobility.initialZ = 5m

**.sensorGW0[0].mobility.initialX = 0m
**.sensorGW0[0].mobility.initialY = 500m
**.sensorGW0[0].mobility.initialZ = 1m
**.sensorGW0[1].mobility.initialX = 0m
**.sensorGW0[1].mobility.initialY = 1000m
**.sensorGW0[1].mobility.initialZ = 1m
**.sensorGW0[2].mobility.initialX = 0m
**.sensorGW0[2].mobility.initialY = 1500m
**.sensorGW0[2].mobility.initialZ = 1m
**.sensorGW0[3].mobility.initialX = 0m
**.sensorGW0[3].mobility.initialY = 2000m
**.sensorGW0[3].mobility.initialZ = 1m
**.sensorGW0[4].mobility.initialX = 0m
**.sensorGW0[4].mobility.initialY = 2500m
**.sensorGW0[4].mobility.initialZ = 1m
**.sensorGW0[5].mobility.initialX = 0m
**.sensorGW0[5].mobility.initialY = -500m
**.sensorGW0[5].mobility.initialZ = 1m
**.sensorGW0[6].mobility.initialX = 0m
**.sensorGW0[6].mobility.initialY = -1000m
**.sensorGW0[6].mobility.initialZ = 1m
**.sensorGW0[7].mobility.initialX = 0m
**.sensorGW0[7].mobility.initialY = -1500m
**.sensorGW0[7].mobility.initialZ = 1m
**.sensorGW0[8].mobility.initialX = 0m
**.sensorGW0[8].mobility.initialY = -2000m
**.sensorGW0[8].mobility.initialZ = 1m
**.sensorGW0[9].mobility.initialX = 0m
**.sensorGW0[9].mobility.initialY = -2500m
**.sensorGW0[9].mobility.initialZ = 1m
**.sensorGW1[0].mobility.initialX = 12000m
**.sensorGW1[0].mobility.initialY = 500m
**.sensorGW1[0].mobility.initialZ = 1m
**.sensorGW1[1].mobility.initialX = 12000m
**.sensorGW1[1].mobility.initialY = 1000m
**.sensorGW1[1].mobility.initialZ = 1m
**.sensorGW1[2].mobility.initialX = 12000m
**.sensorGW1[2].mobility.initialY = 1500m
**.sensorGW1[2].mobility.initialZ = 1m
**.sensorGW1[3].mobility.initialX = 12000m
**.sensorGW1[3].mobility.initialY = 2000m
**.sensorGW1[3].mobility.initialZ = 1m
**.sensorGW1[4].mobility.initialX = 12000m
**.sensorGW1[4].mobility.initialY = 2500m
**.sensorGW1[4].mobility.initialZ = 1m
**.sensorGW1[5].mobility.initialX = 12000m
**.sensorGW1[5].mobility.initialY = -500m
**.sensorGW1[5].mobility.initialZ = 1m
**.sensorGW1[6].mobility.initialX = 12000m
**.sensorGW1[6].mobility.initialY = -1000m
**.sensorGW1[6].mobility.initialZ = 1m
**.sensorGW1[7].mobility.initialX = 12000m
**.sensorGW1[7].mobility.initialY = -1500m
**.sensorGW1[7].mobility.initialZ = 1m
**.sensorGW1[8].mobility.initialX = 12000m
**.sensorGW1[8].mobility.initialY = -2000m
**.sensorGW1[8].mobility.initialZ = 1m
**.sensorGW1[9].mobility.initialX = 12000m
**.sensorGW1[9].mobility.initialY = -2500m
**.sensorGW1[9].mobility.initialZ = 1m

**.gwRouter0.mobility.initialX      = 0m
**.gwRouter0.mobility.initialY      = -3000m
**.gwRouter0.mobility.initialZ      = 0m
**.networkServer0.mobility.initialX = 0m
**.networkServer0.mobility.initialY = -5000m
**.networkServer0.mobility.initialZ = 0m
**.gwRouter1.mobility.initialX      = 12000m
**.gwRouter1.mobility.initialY      = -3000m
**.gwRouter1.mobility.initialZ      = 0m
**.networkServer1.mobility.initialX = 12000m
**.networkServer1.mobility.initialY = -5000m
**.networkServer1.mobility.initialZ = 0m

**.constraintAreaMinX = -1000m
**.constraintAreaMinY = -6000m
**.constraintAreaMaxX = 14000m
**.constraintAreaMaxY = 3500m
**.constraintAreaMinZ = 0m
**.constraintAreaMaxZ = 20m

# =============================================================================
# Config   : Faz4_GW2_Mesh2_MIN
# GW=2  MeshPerGap=2  Mod=MIN
# Hop=1000m  Gap=3000m  ToplamUzunluk=3000m
# MeshNode=2  Sensör=20 (10/GW)
# Run=36  (sensorSF 7..12 × meshSF 7..12), sigma=5.0
# =============================================================================

[Config Faz4_GW2_Mesh2_MIN]
network        = LoraMesh_GW2_Mesh2_MIN
sim-time-limit = 1200s
description    = "Faz4_GW=2 Mesh=2 MIN: 20 sensör, 2 MeshNode, sigma=5.0, gamma=2.8, obstacle=3.5dB, noiseFloor=-105dBm, sendInterval=180s (BTK/KET YasalSinir)"

output-scalar-file = results_faz4/Faz4_GW2_Mesh2_MIN-${runnumber}.sca

**.scalar-recording = true
**.vector-recording = false

# ── Kartezyen çarpım: sensorSF × meshSF = 36 run ──────────────────────────
**.sensorGW*[*].app[0].initialLoRaSF       = ${sensorSF    = 7, 8, 9, 10, 11, 12}
**.meshNode[*].meshRouting.loraSF           = ${meshSF      = 7, 8, 9, 10, 11, 12}
**.radioMedium.pathLoss.sigma               = 5.0
**.sigma                                    = 5.0

# ── sensorSF paralel (!): sendInterval + gwSensitivity ────────────────────
**.sensorGW*[*].app[0].dataSize      = 20B
**.sensorGW*[*].app[0].sendInterval  = 180s
# NOTE: sendInterval sabit 180s — SF bağımsız trafik yoğunluğu testi
**.LoRaGWNic.radio.receiver.sensitivity = ${gwSensitivity = -124dBm, -127dBm, -130dBm, -133dBm, -135dBm, -141dBm ! sensorSF}

# ── meshSF paralel (!): beaconInterval + cadDuration ──────────────────────